<routes>

	<vType id="car" 
		vClass="passenger" accel="0.8" decel="4.5" 
		sigma="0.5" length="5" maxspeed="10" />
	
	<vType id="ev" 
		vClass="emergency" accel="0.8" decel="4.5" 
		sigma="0.5" length="5" maxspeed="30" />
		
	<route id="route_0" edges="Faixa_1 Faixa_4" />
	<route id="route_1" edges="Faixa_3 Faixa_6" />
	<route id="route_2" edges="Faixa_5 Faixa_8" />
	<route id="route_3" edges="Faixa_7 Faixa_2" />
	
	<vehicle id="0" type="car" route="route_0" depart="0" />
	
	<vehicle id="1" type="car" route="route_1" depart="20"  />
	
	<vehicle id="2" type="car" route="route_2" depart="40" color="1,0,0" />
		
	<vehicle id="3" type="ev" route="route_3" depart="40" color="1,1,0" />	
	
	
	<vehicle id="4" type="car" route="route_3" depart="20"  />
	<vehicle id="5" type="car" route="route_3" depart="40"  />
	<vehicle id="6" type="car" route="route_3" depart="60"  />
	<vehicle id="7" type="car" route="route_3" depart="80"  />
	<vehicle id="8" type="car" route="route_3" depart="100"  />
	<!--
	<flow id="type1" color="1,0,1"  begin="0" end= "2000" period="10" type="car">
		<route edges="Faixa_5 Faixa_8"/>
	</flow>

	<flow id="type2" color="1,1,0"  begin="0" end= "2000" period="10" type="ev">
		<route edges="Faixa_7 Faixa_2"/>
	</flow>
	-->

</routes>
		