<?xml version="1.0" encoding="UTF-8"?>

<!-- generated on 05/22/19 15:12:43 by Eclipse SUMO netedit Version 1.1.0
<configuration xmlns:xsi="http://www.w3.org/2001/XMLSchema-instance" xsi:noNamespaceSchemaLocation="http://sumo.dlr.de/xsd/netconvertConfiguration.xsd">

    <input>
        <sumo-net-file value="C:\Users\lehonahodo\Dropbox\Academico\USP-POLI\TCC%20-%20Final\Sumo%20Projects\Cruzamento_Simples\Cruz_Net.net.xml"/>
    </input>

    <output>
        <output-file value="C:\Users\lehonahodo\Dropbox\Academico\USP-POLI\TCC%20-%20Final\Sumo%20Projects\Cruzamento_Simples\Cruz_Net.net.xml"/>
    </output>

    <processing>
        <geometry.max-grade.fix value="false"/>
        <offset.disable-normalization value="true"/>
        <lefthand value="false"/>
    </processing>

    <junctions>
        <no-turnarounds value="true"/>
        <junctions.corner-detail value="5"/>
        <junctions.limit-turn-speed value="5.5"/>
        <rectangular-lane-cut value="false"/>
    </junctions>

    <pedestrian>
        <walkingareas value="false"/>
    </pedestrian>

</configuration>
-->

<additional xmlns:xsi="http://www.w3.org/2001/XMLSchema-instance" xsi:noNamespaceSchemaLocation="http://sumo.dlr.de/xsd/additional_file.xsd">
</additional>
